 **********************************************
 **** Specfem 3-D Solver - MPI version f90 ****
 **********************************************

 Running Git package version of the code: 4.1.1
 which is Git unknown
 dating unknown




 There are            8  MPI processes
 Processes are numbered from 0 to            7

 There is a total of            8  slices

  NDIM =            3

  NGLLX =            5
  NGLLY =            5
  NGLLZ =            5

 using single precision for the calculations
 using force vectorization

 smallest and largest possible floating-point numbers are:    1.17549435E-38   3.40282347E+38

 Moon simulation model: moon_default
   using lunar projections (LTM/LPS) instead of UTM

 velocity model type:  default

 Reading mesh databases...
   reads binary mesh files: proc***_external_mesh.bin
   from directory         : ./DATABASES_MPI

   simulation w/ acoustic    domain:  F
   simulation w/ elastic     domain:  T
   simulation w/ poroelastic domain:  F

   slice 0 has:
   number of elements acoustic   :           0
   number of elements elastic    :        8016
   number of elements poroelastic:           0
   done

   total acoustic elements    :           0
   total elastic elements     :       64128
   total poroelastic elements :           0

 Mesh resolution:

 ********
 minimum and maximum number of elements
 and points in the CUBIT + SCOTCH mesh:

 NSPEC_global_min =         8016
 NSPEC_global_max =         8016
 NSPEC_global_max / NSPEC_global_min imbalance =    1.00000000      =    0.00000000      %
 NSPEC_global_sum =        64128

 NGLOB_global_min =       538761
 NGLOB_global_max =       538761
 NGLOB_global_max / NGLOB_global_min imbalance =    1.00000000      =    0.00000000      %
 NGLOB_global_sum =      4310088

 If you have elements of a single type (all acoustic, all elastic, all poroelastic, and without CPML)
 in the whole mesh, then there should be no significant imbalance in the above numbers.
 Otherwise, it is normal to have imbalance in elements and points because the domain decomposer
 compensates for the different cost of different elements by partitioning them unevenly among processes.
 ********


 ********
 Model: P   velocity min,max =    749.789429       7540.00000
 Model: S   velocity min,max =    374.894745       4340.00000

 Model: Poisson's ratio min,max =   0.252267480      0.333333403
 ********

 *********************************************
 *** Verification of simulation parameters ***
 *********************************************

 *** Xmin and Xmax of the model =    68606.7031       370807.688
 *** Ymin and Ymax of the model =   -152295.188       151833.109
 *** Zmin and Zmax of the model =   -100000.000       127.551094

 *** Max GLL point distance =    12443.6797
 *** Min GLL point distance =    115.335205
 *** Max/min ratio =    107.891426

 *** Max element size =    38016.0391
 *** Min element size =    667.939697
 *** Max/min ratio =    56.9153748

 *** Minimum period resolved =    16.5374680     (s)
 ***          (as frequency) =    6.04687482E-02 (Hz)
 *** Maximum suggested time step =    2.34999992E-02

 *** for DT :    2.4000000000000000E-002
 *** Max stability for wave velocities =   0.507479429

 Elapsed time for checking mesh resolution in seconds =    1.3867999999999991E-002
 saving VTK files for Courant number and minimum period


 ******************************************
 There is a total of            8  slices
 ******************************************

 movie simulation:
   surface movie

 mesh surfaces:
   high-resolution  =  T
   nfaces per slice =         2620        2244        2244        2620        2620        2244        2244        2620

   total number of surface faces is        19456

 surface movies:
   saving: particle velocities
   number of steps between frames =           50


 kd-tree:
   total data points:       216432
   theoretical   number of nodes:       432855
                tree memory size:    13.2096863     MB
   actual        number of nodes:       432863
                tree memory size:    13.2099304     MB
   maximum depth   :           24
   creation timing :    5.07739931E-02 (s)


 sources:            1

 ********************
  locating sources
 ********************

 reading source information from ./DATA/FORCESOLUTION file

 LTM/LPS projection:
   LTM zone:           20


 source #            1
   source located in slice            6
                  in element         6741
                  in elastic domain

   using force point source:
     xi coordinate of source in that element:   0.68297156683000759
     eta coordinate of source in that element:   0.18124516938923099
     gamma coordinate of source in that element:    1.0003732327276826

     component of direction vector in East direction:  -0.184563398
     component of direction vector in North direction:   -4.84193005E-02
     component of direction vector in Vertical direction:  -0.981627226

     nu1 =    1.00000000       0.00000000       0.00000000
     nu2 =    0.00000000       1.00000000       0.00000000
     nu3 =    0.00000000       0.00000000       1.00000000

     at (x,y,z) coordinates =    231137.67971678133        58196.342698734406       -1091.2490234375000

   source time function:
     using Gaussian source time function
              half duration:   0.12000000000000000       seconds
     Gaussian half duration:    7.3710073710073709E-002  seconds

     time shift:    0.0000000000000000       seconds

   magnitude of the source:
     factor =    360000000.00000000

   original (requested) position of the source:

         latitude:    1.9210000000000000
        longitude:    335.37700000000001

        LTM/LPS x:    231137.67971678133
        LTM/LPS y:    58196.342698734406
            depth:    0.0000000000000000       km
   topo elevation:   -1091.2490234375000

   position of the source that will be used:

        LTM/LPS x:    231137.67971678133
        LTM/LPS y:    58196.342698734406
            depth:    0.0000000000000000       km
                z:   -1091.2490234375000

   error in location of the source:    0.00000000      m



 maximum error in location of the sources:    0.00000000      m


 Elapsed time for detection of sources in seconds =    4.73200018E-03

 End of source detection - done


 Each source is being convolved with HDUR_MOVIE =    5.0000000000000000


 printing the source-time function

 receivers:

   there are            2  stations in file ./DATA/STATIONS
   saving            2  stations inside the model in file ./DATA/STATIONS_FILTERED
   excluding            0  stations located outside the model

   Total number of receivers =            2


 ********************
  locating receivers
 ********************

 reading receiver information from ./DATA/STATIONS_FILTERED file


 station #            1     AP16    S-IVB
      original latitude     :    1.92100000
               longitude    :    335.377014
               LTM/LPS x    :    231137.688
               LTM/LPS y    :    58196.3438
               depth        :    0.00000000      m
      horizontal distance   :    0.00000000      km
      target x, y, z        :    231137.688       58196.3438      -1091.24902
      closest estimate found:    0.00000000      m away

      receiver located in slice            6
                       in element         6741
                       in elastic domain
      at coordinates:
        xi    =   0.68297156683000759
        eta   =   0.18124516938923099
        gamma =    1.0003732327276826
      rotation matrix:
        nu1 =    1.00000000       0.00000000       0.00000000
        nu2 =    0.00000000       1.00000000       0.00000000
        nu3 =    0.00000000       0.00000000       1.00000000
      found LTM/LPS x:    231137.67971678133
            LTM/LPS y:    58196.342698734406
            z:   -1091.2490234375000
            depth:    0.0000000000000000       m



 station #            2     XA    S12
      original latitude     :   -3.01083994
               longitude    :   -23.4245605
               LTM/LPS x    :    267408.062
               LTM/LPS y    :   -91212.0469
               depth        :    0.00000000      m
      horizontal distance   :    153.747864      km
      target x, y, z        :    267408.062      -91212.0469      -1427.14099
      closest estimate found:    2.27373675E-13  m away

      receiver located in slice            2
                       in element         6789
                       in elastic domain
      at coordinates:
        xi    =  -0.59173184942647639
        eta   =   0.41673035742772752
        gamma =   0.99811349519314385
      rotation matrix:
        nu1 =    1.00000000       0.00000000       0.00000000
        nu2 =    0.00000000       1.00000000       0.00000000
        nu3 =    0.00000000       0.00000000       1.00000000
      found LTM/LPS x:    267408.04792256223
            LTM/LPS y:   -91212.049335375865
            z:   -1427.1409912109377
            depth:    2.2737367544323206E-013  m



 maximum error in location of all the receivers:    2.27373675E-13  m

 Elapsed time for receiver detection in seconds =    7.57599995E-03

 End of receiver detection - done

 found a total of            2  receivers in all the slices

 source arrays:
   number of sources is            1
   size of source array                 =    1.43051147E-03 MB
                                        =    1.39698386E-06 GB

 seismograms:
   seismograms written by all processes

   Total number of simulation steps (NSTEP)                       =        20000
   writing out seismograms at every NTSTEP_BETWEEN_OUTPUT_SEISMOS =        20000
   number of subsampling steps for seismograms                    =            1
   Total number of samples for seismograms                        =        20000


   maximum number of local receivers is            1  in slice            2
   size of maximum seismogram array       =   0.228881836     MB
                                          =    2.23517418E-04 GB


 Total number of samples for seismograms =        20000


 Simulation setup:

   no acoustic simulation
 incorporating elastic simulation
   no poroelastic simulation

   no attenuation
   no anisotropy
   no oceans
   no gravity
 incorporating movie simulation


 preparing mass matrices
 preparing constants
 preparing wavefields
 preparing fault simulation
   no dynamic faults
   no kinematic faults
   no fault simulation
 preparing gravity
   no gravity simulation
 preparing Stacey absorbing boundaries
 preparing optimized arrays
   number of regular shaped elements  :            0
   number of irregular shaped elements:         8016
   fused array done
   bandwidth test (STREAM TRIAD):
      memory accesses =    18.4968910     MB
      timing  min/max =    1.55599997E-03 s /    1.59799994E-03 s
      timing      avg =    1.57540001E-03 s
      bandwidth       =    11.4658947     GB/s
      with force_vectorization:
      timing  min/max =    1.17900001E-03 s /    1.19800004E-03 s
      timing      avg =    1.19079999E-03 s
      bandwidth       =    15.1691046     GB/s


 Elapsed time for preparing timerun in seconds =    5.3522999999999987E-002

 ************
  time loop
 ************
               scheme:         Newmark

            time step:    2.40000002E-02  s
 number of time steps:        20000
 total simulated time:    480.000000      seconds
 start time:  -7.50215960      seconds

 All processes are synchronized before the time loop

 Starting time iteration loop...

 Time step #            5
 Time:   -7.40615988      seconds
 Elapsed time in seconds =   0.11450000000000005
 Elapsed time in hh:mm:ss =      0 h 00 m 00 s
 Mean elapsed time per time step in seconds =    2.29000002E-02
 Max norm displacement vector U in all slices (m) =    7.28907512E-09
 Time steps done =            5  out of        20000
 Time steps remaining =        19995
 Estimated remaining time in seconds =    457.885498
 Estimated remaining time in hh:mm:ss =      0 h 07 m 37 s
 Estimated total run time in seconds =    458.000000
 Estimated total run time in hh:mm:ss =      0 h 07 m 38 s
 We have done    2.50000004E-02 % of that
 The run will finish approximately on (in local time): Thu Nov 27, 2025 21:27
 ************************************************************
 **** BEWARE: the above time estimates are not very reliable
 **** because fewer than 100 iterations have been performed
 ************************************************************

 Time step #          100
 Time:   -5.12615967      seconds
 Elapsed time in seconds =    2.5916060000000001
 Elapsed time in hh:mm:ss =      0 h 00 m 02 s
 Mean elapsed time per time step in seconds =    2.59160604E-02
 Max norm displacement vector U in all slices (m) =    1.38479083E-06
 Time steps done =          100  out of        20000
 Time steps remaining =        19900
 Estimated remaining time in seconds =    515.729614
 Estimated remaining time in hh:mm:ss =      0 h 08 m 35 s
 Estimated total run time in seconds =    518.321228
 Estimated total run time in hh:mm:ss =      0 h 08 m 38 s
 We have done   0.500000000     % of that
 The run will finish approximately on (in local time): Thu Nov 27, 2025 21:28

 Time step #          200
 Time:   -2.72615957      seconds
 Elapsed time in seconds =    5.2641810000000007
 Elapsed time in hh:mm:ss =      0 h 00 m 05 s
 Mean elapsed time per time step in seconds =    2.63209045E-02
 Max norm displacement vector U in all slices (m) =    1.25042079E-05
 Time steps done =          200  out of        20000
 Time steps remaining =        19800
 Estimated remaining time in seconds =    521.153931
 Estimated remaining time in hh:mm:ss =      0 h 08 m 41 s
 Estimated total run time in seconds =    526.418091
 Estimated total run time in hh:mm:ss =      0 h 08 m 46 s
 We have done    1.00000000     % of that
 The run will finish approximately on (in local time): Thu Nov 27, 2025 21:29

 Time step #          300
 Time:  -0.326159686      seconds
 Elapsed time in seconds =    7.8644529999999992
 Elapsed time in hh:mm:ss =      0 h 00 m 07 s
 Mean elapsed time per time step in seconds =    2.62148436E-02
 Max norm displacement vector U in all slices (m) =    3.19977989E-05
 Time steps done =          300  out of        20000
 Time steps remaining =        19700
 Estimated remaining time in seconds =    516.432434
 Estimated remaining time in hh:mm:ss =      0 h 08 m 36 s
 Estimated total run time in seconds =    524.296875
 Estimated total run time in hh:mm:ss =      0 h 08 m 44 s
 We have done    1.50000000     % of that
 The run will finish approximately on (in local time): Thu Nov 27, 2025 21:29

 Time step #          400
 Time:    2.07384038      seconds
 Elapsed time in seconds =    10.484712999999999
 Elapsed time in hh:mm:ss =      0 h 00 m 10 s
 Mean elapsed time per time step in seconds =    2.62117833E-02
 Max norm displacement vector U in all slices (m) =    1.98108373E-05
 Time steps done =          400  out of        20000
 Time steps remaining =        19600
 Estimated remaining time in seconds =    513.750916
 Estimated remaining time in hh:mm:ss =      0 h 08 m 33 s
 Estimated total run time in seconds =    524.235657
 Estimated total run time in hh:mm:ss =      0 h 08 m 44 s
 We have done    2.00000000     % of that
 The run will finish approximately on (in local time): Thu Nov 27, 2025 21:29

 Time step #          500
 Time:    4.47384024      seconds
 Elapsed time in seconds =    13.120172999999999
 Elapsed time in hh:mm:ss =      0 h 00 m 13 s
 Mean elapsed time per time step in seconds =    2.62403451E-02
 Max norm displacement vector U in all slices (m) =    2.90404842E-06
 Time steps done =          500  out of        20000
 Time steps remaining =        19500
 Estimated remaining time in seconds =    511.686737
 Estimated remaining time in hh:mm:ss =      0 h 08 m 31 s
 Estimated total run time in seconds =    524.806946
 Estimated total run time in hh:mm:ss =      0 h 08 m 44 s
 We have done    2.50000000     % of that
 The run will finish approximately on (in local time): Thu Nov 27, 2025 21:29

 Time step #          600
 Time:    6.87384033      seconds
 Elapsed time in seconds =    15.743937000000001
 Elapsed time in hh:mm:ss =      0 h 00 m 15 s
 Mean elapsed time per time step in seconds =    2.62398943E-02
 Max norm displacement vector U in all slices (m) =    4.07524055E-07
 Time steps done =          600  out of        20000
 Time steps remaining =        19400
 Estimated remaining time in seconds =    509.053955
 Estimated remaining time in hh:mm:ss =      0 h 08 m 29 s
 Estimated total run time in seconds =    524.797913
 Estimated total run time in hh:mm:ss =      0 h 08 m 44 s
 We have done    3.00000000     % of that
 The run will finish approximately on (in local time): Thu Nov 27, 2025 21:28

 Time step #          700
 Time:    9.27383995      seconds
 Elapsed time in seconds =    18.352708000000000
 Elapsed time in hh:mm:ss =      0 h 00 m 18 s
 Mean elapsed time per time step in seconds =    2.62181535E-02
 Max norm displacement vector U in all slices (m) =    3.33692725E-07
 Time steps done =          700  out of        20000
 Time steps remaining =        19300
 Estimated remaining time in seconds =    506.010376
 Estimated remaining time in hh:mm:ss =      0 h 08 m 26 s
 Estimated total run time in seconds =    524.363098
 Estimated total run time in hh:mm:ss =      0 h 08 m 44 s
 We have done    3.50000000     % of that
 The run will finish approximately on (in local time): Thu Nov 27, 2025 21:28

 Time step #          800
 Time:    11.6738405      seconds
 Elapsed time in seconds =    20.994626000000000
 Elapsed time in hh:mm:ss =      0 h 00 m 20 s
 Mean elapsed time per time step in seconds =    2.62432825E-02
 Max norm displacement vector U in all slices (m) =    2.98359367E-07
 Time steps done =          800  out of        20000
 Time steps remaining =        19200
 Estimated remaining time in seconds =    503.871033
 Estimated remaining time in hh:mm:ss =      0 h 08 m 23 s
 Estimated total run time in seconds =    524.865662
 Estimated total run time in hh:mm:ss =      0 h 08 m 44 s
 We have done    4.00000000     % of that
 The run will finish approximately on (in local time): Thu Nov 27, 2025 21:28

 Time step #          900
 Time:    14.0738401      seconds
 Elapsed time in seconds =    23.611194000000001
 Elapsed time in hh:mm:ss =      0 h 00 m 23 s
 Mean elapsed time per time step in seconds =    2.62346603E-02
 Max norm displacement vector U in all slices (m) =    2.86172991E-07
 Time steps done =          900  out of        20000
 Time steps remaining =        19100
 Estimated remaining time in seconds =    501.082001
 Estimated remaining time in hh:mm:ss =      0 h 08 m 21 s
 Estimated total run time in seconds =    524.693176
 Estimated total run time in hh:mm:ss =      0 h 08 m 44 s
 We have done    4.50000000     % of that
 The run will finish approximately on (in local time): Thu Nov 27, 2025 21:28

 Time step #         1000
 Time:    16.4738407      seconds
 Elapsed time in seconds =    26.278662000000001
 Elapsed time in hh:mm:ss =      0 h 00 m 26 s
 Mean elapsed time per time step in seconds =    2.62786616E-02
 Max norm displacement vector U in all slices (m) =    2.42822580E-07
 Time steps done =         1000  out of        20000
 Time steps remaining =        19000
 Estimated remaining time in seconds =    499.294586
 Estimated remaining time in hh:mm:ss =      0 h 08 m 19 s
 Estimated total run time in seconds =    525.573242
 Estimated total run time in hh:mm:ss =      0 h 08 m 45 s
 We have done    5.00000000     % of that
 The run will finish approximately on (in local time): Thu Nov 27, 2025 21:28

 Time step #         1100
 Time:    18.8738403      seconds
 Elapsed time in seconds =    28.884589000000002
 Elapsed time in hh:mm:ss =      0 h 00 m 28 s
 Mean elapsed time per time step in seconds =    2.62587164E-02
 Max norm displacement vector U in all slices (m) =    2.48153611E-07
 Time steps done =         1100  out of        20000
 Time steps remaining =        18900
 Estimated remaining time in seconds =    496.289764
 Estimated remaining time in hh:mm:ss =      0 h 08 m 16 s
 Estimated total run time in seconds =    525.174316
 Estimated total run time in hh:mm:ss =      0 h 08 m 45 s
 We have done    5.50000000     % of that
 The run will finish approximately on (in local time): Thu Nov 27, 2025 21:28

 Time step #         1200
 Time:    21.2738400      seconds
 Elapsed time in seconds =    31.520108999999998
 Elapsed time in hh:mm:ss =      0 h 00 m 31 s
 Mean elapsed time per time step in seconds =    2.62667574E-02
 Max norm displacement vector U in all slices (m) =    2.15589793E-07
 Time steps done =         1200  out of        20000
 Time steps remaining =        18800
 Estimated remaining time in seconds =    493.815033
 Estimated remaining time in hh:mm:ss =      0 h 08 m 13 s
 Estimated total run time in seconds =    525.335144
 Estimated total run time in hh:mm:ss =      0 h 08 m 45 s
 We have done    6.00000000     % of that
 The run will finish approximately on (in local time): Thu Nov 27, 2025 21:28

 Time step #         1300
 Time:    23.6738396      seconds
 Elapsed time in seconds =    34.201984000000003
 Elapsed time in hh:mm:ss =      0 h 00 m 34 s
 Mean elapsed time per time step in seconds =    2.63092183E-02
 Max norm displacement vector U in all slices (m) =    1.99454931E-07
 Time steps done =         1300  out of        20000
 Time steps remaining =        18700
 Estimated remaining time in seconds =    491.982391
 Estimated remaining time in hh:mm:ss =      0 h 08 m 11 s
 Estimated total run time in seconds =    526.184387
 Estimated total run time in hh:mm:ss =      0 h 08 m 46 s
 We have done    6.50000000     % of that
 The run will finish approximately on (in local time): Thu Nov 27, 2025 21:28

 Time step #         1400
 Time:    26.0738411      seconds
 Elapsed time in seconds =    36.866408000000000
 Elapsed time in hh:mm:ss =      0 h 00 m 36 s
 Mean elapsed time per time step in seconds =    2.63331477E-02
 Max norm displacement vector U in all slices (m) =    1.87408205E-07
 Time steps done =         1400  out of        20000
 Time steps remaining =        18600
 Estimated remaining time in seconds =    489.796570
 Estimated remaining time in hh:mm:ss =      0 h 08 m 09 s
 Estimated total run time in seconds =    526.662964
 Estimated total run time in hh:mm:ss =      0 h 08 m 46 s
 We have done    7.00000000     % of that
 The run will finish approximately on (in local time): Thu Nov 27, 2025 21:28

 Time step #         1500
 Time:    28.4738407      seconds
 Elapsed time in seconds =    39.439778000000004
 Elapsed time in hh:mm:ss =      0 h 00 m 39 s
 Mean elapsed time per time step in seconds =    2.62931846E-02
 Max norm displacement vector U in all slices (m) =    1.74606726E-07
 Time steps done =         1500  out of        20000
 Time steps remaining =        18500
 Estimated remaining time in seconds =    486.423920
 Estimated remaining time in hh:mm:ss =      0 h 08 m 06 s
 Estimated total run time in seconds =    525.863708
 Estimated total run time in hh:mm:ss =      0 h 08 m 45 s
 We have done    7.50000000     % of that
 The run will finish approximately on (in local time): Thu Nov 27, 2025 21:28

 Time step #         1600
 Time:    30.8738403      seconds
 Elapsed time in seconds =    42.007209000000003
 Elapsed time in hh:mm:ss =      0 h 00 m 42 s
 Mean elapsed time per time step in seconds =    2.62545049E-02
 Max norm displacement vector U in all slices (m) =    1.82181651E-07
 Time steps done =         1600  out of        20000
 Time steps remaining =        18400
 Estimated remaining time in seconds =    483.082916
 Estimated remaining time in hh:mm:ss =      0 h 08 m 03 s
 Estimated total run time in seconds =    525.090088
 Estimated total run time in hh:mm:ss =      0 h 08 m 45 s
 We have done    8.00000000     % of that
 The run will finish approximately on (in local time): Thu Nov 27, 2025 21:28

 Time step #         1700
 Time:    33.2738419      seconds
 Elapsed time in seconds =    44.565792000000002
 Elapsed time in hh:mm:ss =      0 h 00 m 44 s
 Mean elapsed time per time step in seconds =    2.62151714E-02
 Max norm displacement vector U in all slices (m) =    1.77769465E-07
 Time steps done =         1700  out of        20000
 Time steps remaining =        18300
 Estimated remaining time in seconds =    479.737640
 Estimated remaining time in hh:mm:ss =      0 h 07 m 59 s
 Estimated total run time in seconds =    524.303406
 Estimated total run time in hh:mm:ss =      0 h 08 m 44 s
 We have done    8.50000000     % of that
 The run will finish approximately on (in local time): Thu Nov 27, 2025 21:28

 Time step #         1800
 Time:    35.6738396      seconds
 Elapsed time in seconds =    47.149135000000001
 Elapsed time in hh:mm:ss =      0 h 00 m 47 s
 Mean elapsed time per time step in seconds =    2.61939634E-02
 Max norm displacement vector U in all slices (m) =    1.60958493E-07
 Time steps done =         1800  out of        20000
 Time steps remaining =        18200
 Estimated remaining time in seconds =    476.730133
 Estimated remaining time in hh:mm:ss =      0 h 07 m 56 s
 Estimated total run time in seconds =    523.879272
 Estimated total run time in hh:mm:ss =      0 h 08 m 43 s
 We have done    9.00000000     % of that
 The run will finish approximately on (in local time): Thu Nov 27, 2025 21:28

 Time step #         1900
 Time:    38.0738411      seconds
 Elapsed time in seconds =    49.732992000000003
 Elapsed time in hh:mm:ss =      0 h 00 m 49 s
 Mean elapsed time per time step in seconds =    2.61752587E-02
 Max norm displacement vector U in all slices (m) =    1.61944754E-07
 Time steps done =         1900  out of        20000
 Time steps remaining =        18100
 Estimated remaining time in seconds =    473.772186
 Estimated remaining time in hh:mm:ss =      0 h 07 m 53 s
 Estimated total run time in seconds =    523.505188
 Estimated total run time in hh:mm:ss =      0 h 08 m 43 s
 We have done    9.50000000     % of that
 The run will finish approximately on (in local time): Thu Nov 27, 2025 21:28

 Time step #         2000
 Time:    40.4738388      seconds
 Elapsed time in seconds =    52.305888000000003
 Elapsed time in hh:mm:ss =      0 h 00 m 52 s
 Mean elapsed time per time step in seconds =    2.61529442E-02
 Max norm displacement vector U in all slices (m) =    1.68062172E-07
 Time steps done =         2000  out of        20000
 Time steps remaining =        18000
 Estimated remaining time in seconds =    470.752991
 Estimated remaining time in hh:mm:ss =      0 h 07 m 50 s
 Estimated total run time in seconds =    523.058899
 Estimated total run time in hh:mm:ss =      0 h 08 m 43 s
 We have done    10.0000000     % of that
 The run will finish approximately on (in local time): Thu Nov 27, 2025 21:28

 Time step #         2100
 Time:    42.8738403      seconds
 Elapsed time in seconds =    55.026820999999998
 Elapsed time in hh:mm:ss =      0 h 00 m 55 s
 Mean elapsed time per time step in seconds =    2.62032486E-02
 Max norm displacement vector U in all slices (m) =    1.36860791E-07
 Time steps done =         2100  out of        20000
 Time steps remaining =        17900
 Estimated remaining time in seconds =    469.038147
 Estimated remaining time in hh:mm:ss =      0 h 07 m 49 s
 Estimated total run time in seconds =    524.064941
 Estimated total run time in hh:mm:ss =      0 h 08 m 44 s
 We have done    10.5000000     % of that
 The run will finish approximately on (in local time): Thu Nov 27, 2025 21:28

 Time step #         2200
 Time:    45.2738419      seconds
 Elapsed time in seconds =    57.743963999999998
 Elapsed time in hh:mm:ss =      0 h 00 m 57 s
 Mean elapsed time per time step in seconds =    2.62472555E-02
 Max norm displacement vector U in all slices (m) =    1.56652561E-07
 Time steps done =         2200  out of        20000
 Time steps remaining =        17800
 Estimated remaining time in seconds =    467.201172
 Estimated remaining time in hh:mm:ss =      0 h 07 m 47 s
 Estimated total run time in seconds =    524.945129
 Estimated total run time in hh:mm:ss =      0 h 08 m 44 s
 We have done    11.0000000     % of that
 The run will finish approximately on (in local time): Thu Nov 27, 2025 21:28

 Time step #         2300
 Time:    47.6738396      seconds
 Elapsed time in seconds =    60.461485000000003
 Elapsed time in hh:mm:ss =      0 h 01 m 00 s
 Mean elapsed time per time step in seconds =    2.62876023E-02
 Max norm displacement vector U in all slices (m) =    1.27239119E-07
 Time steps done =         2300  out of        20000
 Time steps remaining =        17700
 Estimated remaining time in seconds =    465.290558
 Estimated remaining time in hh:mm:ss =      0 h 07 m 45 s
 Estimated total run time in seconds =    525.752014
 Estimated total run time in hh:mm:ss =      0 h 08 m 45 s
 We have done    11.5000000     % of that
 The run will finish approximately on (in local time): Thu Nov 27, 2025 21:28

 Time step #         2400
 Time:    50.0738411      seconds
 Elapsed time in seconds =    63.119623000000004
 Elapsed time in hh:mm:ss =      0 h 01 m 03 s
 Mean elapsed time per time step in seconds =    2.62998436E-02
 Max norm displacement vector U in all slices (m) =    1.42010194E-07
 Time steps done =         2400  out of        20000
 Time steps remaining =        17600
 Estimated remaining time in seconds =    462.877228
 Estimated remaining time in hh:mm:ss =      0 h 07 m 42 s
 Estimated total run time in seconds =    525.996887
 Estimated total run time in hh:mm:ss =      0 h 08 m 45 s
 We have done    12.0000000     % of that
 The run will finish approximately on (in local time): Thu Nov 27, 2025 21:28

 Time step #         2500
 Time:    52.4738388      seconds
 Elapsed time in seconds =    65.750135000000000
 Elapsed time in hh:mm:ss =      0 h 01 m 05 s
 Mean elapsed time per time step in seconds =    2.63000540E-02
 Max norm displacement vector U in all slices (m) =    1.42929821E-07
 Time steps done =         2500  out of        20000
 Time steps remaining =        17500
 Estimated remaining time in seconds =    460.250946
 Estimated remaining time in hh:mm:ss =      0 h 07 m 40 s
 Estimated total run time in seconds =    526.001099
 Estimated total run time in hh:mm:ss =      0 h 08 m 46 s
 We have done    12.5000000     % of that
 The run will finish approximately on (in local time): Thu Nov 27, 2025 21:29

 Time step #         2600
 Time:    54.8738403      seconds
 Elapsed time in seconds =    68.391841999999997
 Elapsed time in hh:mm:ss =      0 h 01 m 08 s
 Mean elapsed time per time step in seconds =    2.63045542E-02
 Max norm displacement vector U in all slices (m) =    1.28692108E-07
 Time steps done =         2600  out of        20000
 Time steps remaining =        17400
 Estimated remaining time in seconds =    457.699249
 Estimated remaining time in hh:mm:ss =      0 h 07 m 37 s
 Estimated total run time in seconds =    526.091064
 Estimated total run time in hh:mm:ss =      0 h 08 m 46 s
 We have done    13.0000000     % of that
 The run will finish approximately on (in local time): Thu Nov 27, 2025 21:29

 Time step #         2700
 Time:    57.2738419      seconds
 Elapsed time in seconds =    71.070999999999998
 Elapsed time in hh:mm:ss =      0 h 01 m 11 s
 Mean elapsed time per time step in seconds =    2.63225920E-02
 Max norm displacement vector U in all slices (m) =    1.46275326E-07
 Time steps done =         2700  out of        20000
 Time steps remaining =        17300
 Estimated remaining time in seconds =    455.380859
 Estimated remaining time in hh:mm:ss =      0 h 07 m 35 s
 Estimated total run time in seconds =    526.451843
 Estimated total run time in hh:mm:ss =      0 h 08 m 46 s
 We have done    13.5000000     % of that
 The run will finish approximately on (in local time): Thu Nov 27, 2025 21:29

 Time step #         2800
 Time:    59.6738396      seconds
 Elapsed time in seconds =    73.771196000000003
 Elapsed time in hh:mm:ss =      0 h 01 m 13 s
 Mean elapsed time per time step in seconds =    2.63468549E-02
 Max norm displacement vector U in all slices (m) =    1.40058617E-07
 Time steps done =         2800  out of        20000
 Time steps remaining =        17200
 Estimated remaining time in seconds =    453.165924
 Estimated remaining time in hh:mm:ss =      0 h 07 m 33 s
 Estimated total run time in seconds =    526.937134
 Estimated total run time in hh:mm:ss =      0 h 08 m 46 s
 We have done    14.0000000     % of that
 The run will finish approximately on (in local time): Thu Nov 27, 2025 21:29

 Time step #         2900
 Time:    62.0738411      seconds
 Elapsed time in seconds =    76.439231000000007
 Elapsed time in hh:mm:ss =      0 h 01 m 16 s
 Mean elapsed time per time step in seconds =    2.63583548E-02
 Max norm displacement vector U in all slices (m) =    1.29129120E-07
 Time steps done =         2900  out of        20000
 Time steps remaining =        17100
 Estimated remaining time in seconds =    450.727875
 Estimated remaining time in hh:mm:ss =      0 h 07 m 30 s
 Estimated total run time in seconds =    527.167114
 Estimated total run time in hh:mm:ss =      0 h 08 m 47 s
 We have done    14.5000000     % of that
 The run will finish approximately on (in local time): Thu Nov 27, 2025 21:29

 Time step #         3000
 Time:    64.4738388      seconds
 Elapsed time in seconds =    79.088650000000001
 Elapsed time in hh:mm:ss =      0 h 01 m 19 s
 Mean elapsed time per time step in seconds =    2.63628829E-02
 Max norm displacement vector U in all slices (m) =    1.35410232E-07
 Time steps done =         3000  out of        20000
 Time steps remaining =        17000
 Estimated remaining time in seconds =    448.169006
 Estimated remaining time in hh:mm:ss =      0 h 07 m 28 s
 Estimated total run time in seconds =    527.257690
 Estimated total run time in hh:mm:ss =      0 h 08 m 47 s
 We have done    15.0000000     % of that
 The run will finish approximately on (in local time): Thu Nov 27, 2025 21:28

 Time step #         3100
 Time:    66.8738403      seconds
 Elapsed time in seconds =    81.694738999999998
 Elapsed time in hh:mm:ss =      0 h 01 m 21 s
 Mean elapsed time per time step in seconds =    2.63531413E-02
 Max norm displacement vector U in all slices (m) =    1.32531355E-07
 Time steps done =         3100  out of        20000
 Time steps remaining =        16900
 Estimated remaining time in seconds =    445.368103
 Estimated remaining time in hh:mm:ss =      0 h 07 m 25 s
 Estimated total run time in seconds =    527.062805
 Estimated total run time in hh:mm:ss =      0 h 08 m 47 s
 We have done    15.5000000     % of that
 The run will finish approximately on (in local time): Thu Nov 27, 2025 21:28

 Time step #         3200
 Time:    69.2738419      seconds
 Elapsed time in seconds =    84.302617999999995
 Elapsed time in hh:mm:ss =      0 h 01 m 24 s
 Mean elapsed time per time step in seconds =    2.63445675E-02
 Max norm displacement vector U in all slices (m) =    1.26957460E-07
 Time steps done =         3200  out of        20000
 Time steps remaining =        16800
 Estimated remaining time in seconds =    442.588745
 Estimated remaining time in hh:mm:ss =      0 h 07 m 22 s
 Estimated total run time in seconds =    526.891357
 Estimated total run time in hh:mm:ss =      0 h 08 m 46 s
 We have done    16.0000000     % of that
 The run will finish approximately on (in local time): Thu Nov 27, 2025 21:28

 Time step #         3300
 Time:    71.6738434      seconds
 Elapsed time in seconds =    86.864311000000001
 Elapsed time in hh:mm:ss =      0 h 01 m 26 s
 Mean elapsed time per time step in seconds =    2.63225194E-02
 Max norm displacement vector U in all slices (m) =    1.39609540E-07
 Time steps done =         3300  out of        20000
 Time steps remaining =        16700
 Estimated remaining time in seconds =    439.586060
 Estimated remaining time in hh:mm:ss =      0 h 07 m 19 s
 Estimated total run time in seconds =    526.450378
 Estimated total run time in hh:mm:ss =      0 h 08 m 46 s
 We have done    16.5000000     % of that
 The run will finish approximately on (in local time): Thu Nov 27, 2025 21:28

 Time step #         3400
 Time:    74.0738373      seconds
 Elapsed time in seconds =    89.447578000000007
 Elapsed time in hh:mm:ss =      0 h 01 m 29 s
 Mean elapsed time per time step in seconds =    2.63081118E-02
 Max norm displacement vector U in all slices (m) =    1.11019219E-07
 Time steps done =         3400  out of        20000
 Time steps remaining =        16600
 Estimated remaining time in seconds =    436.714661
 Estimated remaining time in hh:mm:ss =      0 h 07 m 16 s
 Estimated total run time in seconds =    526.162231
 Estimated total run time in hh:mm:ss =      0 h 08 m 46 s
 We have done    17.0000000     % of that
 The run will finish approximately on (in local time): Thu Nov 27, 2025 21:28

 Time step #         3500
 Time:    76.4738388      seconds
 Elapsed time in seconds =    92.077736000000002
 Elapsed time in hh:mm:ss =      0 h 01 m 32 s
 Mean elapsed time per time step in seconds =    2.63079237E-02
 Max norm displacement vector U in all slices (m) =    1.23283698E-07
 Time steps done =         3500  out of        20000
 Time steps remaining =        16500
 Estimated remaining time in seconds =    434.080750
 Estimated remaining time in hh:mm:ss =      0 h 07 m 14 s
 Estimated total run time in seconds =    526.158508
 Estimated total run time in hh:mm:ss =      0 h 08 m 46 s
 We have done    17.5000000     % of that
 The run will finish approximately on (in local time): Thu Nov 27, 2025 21:28

 Time step #         3600
 Time:    78.8738403      seconds
 Elapsed time in seconds =    94.673673000000008
 Elapsed time in hh:mm:ss =      0 h 01 m 34 s
 Mean elapsed time per time step in seconds =    2.62982417E-02
 Max norm displacement vector U in all slices (m) =    1.16392812E-07
 Time steps done =         3600  out of        20000
 Time steps remaining =        16400
 Estimated remaining time in seconds =    431.291168
 Estimated remaining time in hh:mm:ss =      0 h 07 m 11 s
 Estimated total run time in seconds =    525.964844
 Estimated total run time in hh:mm:ss =      0 h 08 m 45 s
 We have done    18.0000000     % of that
 The run will finish approximately on (in local time): Thu Nov 27, 2025 21:28

 Time step #         3700
 Time:    81.2738419      seconds
 Elapsed time in seconds =    97.342692999999997
 Elapsed time in hh:mm:ss =      0 h 01 m 37 s
 Mean elapsed time per time step in seconds =    2.63088364E-02
 Max norm displacement vector U in all slices (m) =    1.08953948E-07
 Time steps done =         3700  out of        20000
 Time steps remaining =        16300
 Estimated remaining time in seconds =    428.834015
 Estimated remaining time in hh:mm:ss =      0 h 07 m 08 s
 Estimated total run time in seconds =    526.176697
 Estimated total run time in hh:mm:ss =      0 h 08 m 46 s
 We have done    18.5000000     % of that
 The run will finish approximately on (in local time): Thu Nov 27, 2025 21:28

 Time step #         3800
 Time:    83.6738434      seconds
 Elapsed time in seconds =    100.12340400000001
 Elapsed time in hh:mm:ss =      0 h 01 m 40 s
 Mean elapsed time per time step in seconds =    2.63482649E-02
 Max norm displacement vector U in all slices (m) =    1.21277708E-07
 Time steps done =         3800  out of        20000
 Time steps remaining =        16200
 Estimated remaining time in seconds =    426.841888
 Estimated remaining time in hh:mm:ss =      0 h 07 m 06 s
 Estimated total run time in seconds =    526.965271
 Estimated total run time in hh:mm:ss =      0 h 08 m 46 s
 We have done    19.0000000     % of that
 The run will finish approximately on (in local time): Thu Nov 27, 2025 21:28

 Time step #         3900
 Time:    86.0738373      seconds
 Elapsed time in seconds =    102.85156100000000
 Elapsed time in hh:mm:ss =      0 h 01 m 42 s
 Mean elapsed time per time step in seconds =    2.63721943E-02
 Max norm displacement vector U in all slices (m) =    1.17196528E-07
 Time steps done =         3900  out of        20000
 Time steps remaining =        16100
 Estimated remaining time in seconds =    424.592346
 Estimated remaining time in hh:mm:ss =      0 h 07 m 04 s
 Estimated total run time in seconds =    527.443909
 Estimated total run time in hh:mm:ss =      0 h 08 m 47 s
 We have done    19.5000000     % of that
 The run will finish approximately on (in local time): Thu Nov 27, 2025 21:28

 Time step #         4000
 Time:    88.4738388      seconds
 Elapsed time in seconds =    105.66052600000000
 Elapsed time in hh:mm:ss =      0 h 01 m 45 s
 Mean elapsed time per time step in seconds =    2.64151320E-02
 Max norm displacement vector U in all slices (m) =    1.14987074E-07
 Time steps done =         4000  out of        20000
 Time steps remaining =        16000
 Estimated remaining time in seconds =    422.642090
 Estimated remaining time in hh:mm:ss =      0 h 07 m 02 s
 Estimated total run time in seconds =    528.302612
 Estimated total run time in hh:mm:ss =      0 h 08 m 48 s
 We have done    20.0000000     % of that
 The run will finish approximately on (in local time): Thu Nov 27, 2025 21:28

 Time step #         4100
 Time:    90.8738403      seconds
 Elapsed time in seconds =    108.38037300000001
 Elapsed time in hh:mm:ss =      0 h 01 m 48 s
 Mean elapsed time per time step in seconds =    2.64342371E-02
 Max norm displacement vector U in all slices (m) =    1.14304257E-07
 Time steps done =         4100  out of        20000
 Time steps remaining =        15900
 Estimated remaining time in seconds =    420.304382
 Estimated remaining time in hh:mm:ss =      0 h 07 m 00 s
 Estimated total run time in seconds =    528.684753
 Estimated total run time in hh:mm:ss =      0 h 08 m 48 s
 We have done    20.5000000     % of that
 The run will finish approximately on (in local time): Thu Nov 27, 2025 21:28

 Time step #         4200
 Time:    93.2738419      seconds
 Elapsed time in seconds =    111.08290300000000
 Elapsed time in hh:mm:ss =      0 h 01 m 51 s
 Mean elapsed time per time step in seconds =    2.64483094E-02
 Max norm displacement vector U in all slices (m) =    1.07249647E-07
 Time steps done =         4200  out of        20000
 Time steps remaining =        15800
 Estimated remaining time in seconds =    417.883301
 Estimated remaining time in hh:mm:ss =      0 h 06 m 57 s
 Estimated total run time in seconds =    528.966187
 Estimated total run time in hh:mm:ss =      0 h 08 m 48 s
 We have done    21.0000000     % of that
 The run will finish approximately on (in local time): Thu Nov 27, 2025 21:28

 Time step #         4300
 Time:    95.6738434      seconds
 Elapsed time in seconds =    113.65616100000000
 Elapsed time in hh:mm:ss =      0 h 01 m 53 s
 Mean elapsed time per time step in seconds =    2.64316648E-02
 Max norm displacement vector U in all slices (m) =    1.10046400E-07
 Time steps done =         4300  out of        20000
 Time steps remaining =        15700
 Estimated remaining time in seconds =    414.977142
 Estimated remaining time in hh:mm:ss =      0 h 06 m 54 s
 Estimated total run time in seconds =    528.633301
 Estimated total run time in hh:mm:ss =      0 h 08 m 48 s
 We have done    21.5000000     % of that
 The run will finish approximately on (in local time): Thu Nov 27, 2025 21:28

 Time step #         4400
 Time:    98.0738373      seconds
 Elapsed time in seconds =    116.21720700000000
 Elapsed time in hh:mm:ss =      0 h 01 m 56 s
 Mean elapsed time per time step in seconds =    2.64130011E-02
 Max norm displacement vector U in all slices (m) =    1.00572663E-07
 Time steps done =         4400  out of        20000
 Time steps remaining =        15600
 Estimated remaining time in seconds =    412.042816
 Estimated remaining time in hh:mm:ss =      0 h 06 m 52 s
 Estimated total run time in seconds =    528.260010
 Estimated total run time in hh:mm:ss =      0 h 08 m 48 s
 We have done    22.0000000     % of that
 The run will finish approximately on (in local time): Thu Nov 27, 2025 21:28

 Time step #         4500
 Time:    100.473839      seconds
 Elapsed time in seconds =    118.77363300000000
 Elapsed time in hh:mm:ss =      0 h 01 m 58 s
 Mean elapsed time per time step in seconds =    2.63941400E-02
 Max norm displacement vector U in all slices (m) =    1.00766236E-07
 Time steps done =         4500  out of        20000
 Time steps remaining =        15500
 Estimated remaining time in seconds =    409.109192
 Estimated remaining time in hh:mm:ss =      0 h 06 m 49 s
 Estimated total run time in seconds =    527.882812
 Estimated total run time in hh:mm:ss =      0 h 08 m 47 s
 We have done    22.5000000     % of that
 The run will finish approximately on (in local time): Thu Nov 27, 2025 21:28

 Time step #         4600
 Time:    102.873840      seconds
 Elapsed time in seconds =    121.35417500000000
 Elapsed time in hh:mm:ss =      0 h 02 m 01 s
 Mean elapsed time per time step in seconds =    2.63813417E-02
 Max norm displacement vector U in all slices (m) =    9.88919169E-08
 Time steps done =         4600  out of        20000
 Time steps remaining =        15400
 Estimated remaining time in seconds =    406.272675
 Estimated remaining time in hh:mm:ss =      0 h 06 m 46 s
 Estimated total run time in seconds =    527.626831
 Estimated total run time in hh:mm:ss =      0 h 08 m 47 s
 We have done    23.0000000     % of that
 The run will finish approximately on (in local time): Thu Nov 27, 2025 21:28

 Time step #         4700
 Time:    105.273842      seconds
 Elapsed time in seconds =    123.96099599999999
 Elapsed time in hh:mm:ss =      0 h 02 m 03 s
 Mean elapsed time per time step in seconds =    2.63746809E-02
 Max norm displacement vector U in all slices (m) =    9.22231891E-08
 Time steps done =         4700  out of        20000
 Time steps remaining =        15300
 Estimated remaining time in seconds =    403.532593
 Estimated remaining time in hh:mm:ss =      0 h 06 m 43 s
 Estimated total run time in seconds =    527.493591
 Estimated total run time in hh:mm:ss =      0 h 08 m 47 s
 We have done    23.5000000     % of that
 The run will finish approximately on (in local time): Thu Nov 27, 2025 21:29

 Time step #         4800
 Time:    107.673843      seconds
 Elapsed time in seconds =    126.57426800000000
 Elapsed time in hh:mm:ss =      0 h 02 m 06 s
 Mean elapsed time per time step in seconds =    2.63696387E-02
 Max norm displacement vector U in all slices (m) =    9.28551884E-08
 Time steps done =         4800  out of        20000
 Time steps remaining =        15200
 Estimated remaining time in seconds =    400.818512
 Estimated remaining time in hh:mm:ss =      0 h 06 m 40 s
 Estimated total run time in seconds =    527.392761
 Estimated total run time in hh:mm:ss =      0 h 08 m 47 s
 We have done    24.0000000     % of that
 The run will finish approximately on (in local time): Thu Nov 27, 2025 21:29

 Time step #         4900
 Time:    110.073837      seconds
 Elapsed time in seconds =    129.19489499999997
 Elapsed time in hh:mm:ss =      0 h 02 m 09 s
 Mean elapsed time per time step in seconds =    2.63663046E-02
 Max norm displacement vector U in all slices (m) =    9.89977735E-08
 Time steps done =         4900  out of        20000
 Time steps remaining =        15100
 Estimated remaining time in seconds =    398.131195
 Estimated remaining time in hh:mm:ss =      0 h 06 m 38 s
 Estimated total run time in seconds =    527.326111
 Estimated total run time in hh:mm:ss =      0 h 08 m 47 s
 We have done    24.5000000     % of that
 The run will finish approximately on (in local time): Thu Nov 27, 2025 21:29

 Time step #         5000
 Time:    112.473839      seconds
 Elapsed time in seconds =    131.78351899999998
 Elapsed time in hh:mm:ss =      0 h 02 m 11 s
 Mean elapsed time per time step in seconds =    2.63567045E-02
 Max norm displacement vector U in all slices (m) =    9.67572475E-08
 Time steps done =         5000  out of        20000
 Time steps remaining =        15000
 Estimated remaining time in seconds =    395.350555
 Estimated remaining time in hh:mm:ss =      0 h 06 m 35 s
 Estimated total run time in seconds =    527.134094
 Estimated total run time in hh:mm:ss =      0 h 08 m 47 s
 We have done    25.0000000     % of that
 The run will finish approximately on (in local time): Thu Nov 27, 2025 21:29

 Time step #         5100
 Time:    114.873840      seconds
 Elapsed time in seconds =    134.55115699999999
 Elapsed time in hh:mm:ss =      0 h 02 m 14 s
 Mean elapsed time per time step in seconds =    2.63825804E-02
 Max norm displacement vector U in all slices (m) =    9.26841892E-08
 Time steps done =         5100  out of        20000
 Time steps remaining =        14900
 Estimated remaining time in seconds =    393.100433
 Estimated remaining time in hh:mm:ss =      0 h 06 m 33 s
 Estimated total run time in seconds =    527.651611
 Estimated total run time in hh:mm:ss =      0 h 08 m 47 s
 We have done    25.5000000     % of that
 The run will finish approximately on (in local time): Thu Nov 27, 2025 21:29

 Time step #         5200
 Time:    117.273842      seconds
 Elapsed time in seconds =    137.28661299999999
 Elapsed time in hh:mm:ss =      0 h 02 m 17 s
 Mean elapsed time per time step in seconds =    2.64012720E-02
 Max norm displacement vector U in all slices (m) =    8.65446310E-08
 Time steps done =         5200  out of        20000
 Time steps remaining =        14800
 Estimated remaining time in seconds =    390.738831
 Estimated remaining time in hh:mm:ss =      0 h 06 m 30 s
 Estimated total run time in seconds =    528.025452
 Estimated total run time in hh:mm:ss =      0 h 08 m 48 s
 We have done    26.0000000     % of that
 The run will finish approximately on (in local time): Thu Nov 27, 2025 21:29

 Time step #         5300
 Time:    119.673843      seconds
 Elapsed time in seconds =    139.96789500000000
 Elapsed time in hh:mm:ss =      0 h 02 m 19 s
 Mean elapsed time per time step in seconds =    2.64090374E-02
 Max norm displacement vector U in all slices (m) =    9.43587608E-08
 Time steps done =         5300  out of        20000
 Time steps remaining =        14700
 Estimated remaining time in seconds =    388.212830
 Estimated remaining time in hh:mm:ss =      0 h 06 m 28 s
 Estimated total run time in seconds =    528.180725
 Estimated total run time in hh:mm:ss =      0 h 08 m 48 s
 We have done    26.5000000     % of that
 The run will finish approximately on (in local time): Thu Nov 27, 2025 21:28

 Time step #         5400
 Time:    122.073837      seconds
 Elapsed time in seconds =    142.62753300000000
 Elapsed time in hh:mm:ss =      0 h 02 m 22 s
 Mean elapsed time per time step in seconds =    2.64125057E-02
 Max norm displacement vector U in all slices (m) =    7.86444190E-08
 Time steps done =         5400  out of        20000
 Time steps remaining =        14600
 Estimated remaining time in seconds =    385.622589
 Estimated remaining time in hh:mm:ss =      0 h 06 m 25 s
 Estimated total run time in seconds =    528.250122
 Estimated total run time in hh:mm:ss =      0 h 08 m 48 s
 We have done    27.0000000     % of that
 The run will finish approximately on (in local time): Thu Nov 27, 2025 21:28

 Time step #         5500
 Time:    124.473839      seconds
 Elapsed time in seconds =    145.39348600000000
 Elapsed time in hh:mm:ss =      0 h 02 m 25 s
 Mean elapsed time per time step in seconds =    2.64351796E-02
 Max norm displacement vector U in all slices (m) =    8.63990408E-08
 Time steps done =         5500  out of        20000
 Time steps remaining =        14500
 Estimated remaining time in seconds =    383.310089
 Estimated remaining time in hh:mm:ss =      0 h 06 m 23 s
 Estimated total run time in seconds =    528.703613
 Estimated total run time in hh:mm:ss =      0 h 08 m 48 s
 We have done    27.5000000     % of that
 The run will finish approximately on (in local time): Thu Nov 27, 2025 21:28

 Time step #         5600
 Time:    126.873840      seconds
 Elapsed time in seconds =    148.08204899999998
 Elapsed time in hh:mm:ss =      0 h 02 m 28 s
 Mean elapsed time per time step in seconds =    2.64432225E-02
 Max norm displacement vector U in all slices (m) =    8.47858246E-08
 Time steps done =         5600  out of        20000
 Time steps remaining =        14400
 Estimated remaining time in seconds =    380.782410
 Estimated remaining time in hh:mm:ss =      0 h 06 m 20 s
 Estimated total run time in seconds =    528.864441
 Estimated total run time in hh:mm:ss =      0 h 08 m 48 s
 We have done    28.0000000     % of that
 The run will finish approximately on (in local time): Thu Nov 27, 2025 21:28

 Time step #         5700
 Time:    129.273834      seconds
 Elapsed time in seconds =    150.99468899999999
 Elapsed time in hh:mm:ss =      0 h 02 m 30 s
 Mean elapsed time per time step in seconds =    2.64902972E-02
 Max norm displacement vector U in all slices (m) =    8.49799946E-08
 Time steps done =         5700  out of        20000
 Time steps remaining =        14300
 Estimated remaining time in seconds =    378.811249
 Estimated remaining time in hh:mm:ss =      0 h 06 m 18 s
 Estimated total run time in seconds =    529.805908
 Estimated total run time in hh:mm:ss =      0 h 08 m 49 s
 We have done    28.5000000     % of that
 The run will finish approximately on (in local time): Thu Nov 27, 2025 21:28

 Time step #         5800
 Time:    131.673843      seconds
 Elapsed time in seconds =    153.69327999999999
 Elapsed time in hh:mm:ss =      0 h 02 m 33 s
 Mean elapsed time per time step in seconds =    2.64988411E-02
 Max norm displacement vector U in all slices (m) =    9.12616684E-08
 Time steps done =         5800  out of        20000
 Time steps remaining =        14200
 Estimated remaining time in seconds =    376.283539
 Estimated remaining time in hh:mm:ss =      0 h 06 m 16 s
 Estimated total run time in seconds =    529.976807
 Estimated total run time in hh:mm:ss =      0 h 08 m 49 s
 We have done    29.0000000     % of that
 The run will finish approximately on (in local time): Thu Nov 27, 2025 21:28

 Time step #         5900
 Time:    134.073837      seconds
 Elapsed time in seconds =    156.64947500000000
 Elapsed time in hh:mm:ss =      0 h 02 m 36 s
 Mean elapsed time per time step in seconds =    2.65507586E-02
 Max norm displacement vector U in all slices (m) =    8.45910648E-08
 Time steps done =         5900  out of        20000
 Time steps remaining =        14100
 Estimated remaining time in seconds =    374.365692
 Estimated remaining time in hh:mm:ss =      0 h 06 m 14 s
 Estimated total run time in seconds =    531.015198
 Estimated total run time in hh:mm:ss =      0 h 08 m 51 s
 We have done    29.5000000     % of that
 The run will finish approximately on (in local time): Thu Nov 27, 2025 21:28

 Time step #         6000
 Time:    136.473846      seconds
 Elapsed time in seconds =    159.90397800000000
 Elapsed time in hh:mm:ss =      0 h 02 m 39 s
 Mean elapsed time per time step in seconds =    2.66506635E-02
 Max norm displacement vector U in all slices (m) =    8.61663239E-08
 Time steps done =         6000  out of        20000
 Time steps remaining =        14000
 Estimated remaining time in seconds =    373.109283
 Estimated remaining time in hh:mm:ss =      0 h 06 m 13 s
 Estimated total run time in seconds =    533.013245
 Estimated total run time in hh:mm:ss =      0 h 08 m 53 s
 We have done    30.0000000     % of that
 The run will finish approximately on (in local time): Thu Nov 27, 2025 21:28

 Time step #         6100
 Time:    138.873840      seconds
 Elapsed time in seconds =    162.65056999999999
 Elapsed time in hh:mm:ss =      0 h 02 m 42 s
 Mean elapsed time per time step in seconds =    2.66640279E-02
 Max norm displacement vector U in all slices (m) =    7.49461222E-08
 Time steps done =         6100  out of        20000
 Time steps remaining =        13900
 Estimated remaining time in seconds =    370.629974
 Estimated remaining time in hh:mm:ss =      0 h 06 m 10 s
 Estimated total run time in seconds =    533.280579
 Estimated total run time in hh:mm:ss =      0 h 08 m 53 s
 We have done    30.5000000     % of that
 The run will finish approximately on (in local time): Thu Nov 27, 2025 21:28

 Time step #         6200
 Time:    141.273834      seconds
 Elapsed time in seconds =    165.68014499999998
 Elapsed time in hh:mm:ss =      0 h 02 m 45 s
 Mean elapsed time per time step in seconds =    2.67226044E-02
 Max norm displacement vector U in all slices (m) =    7.03810841E-08
 Time steps done =         6200  out of        20000
 Time steps remaining =        13800
 Estimated remaining time in seconds =    368.771942
 Estimated remaining time in hh:mm:ss =      0 h 06 m 08 s
 Estimated total run time in seconds =    534.452087
 Estimated total run time in hh:mm:ss =      0 h 08 m 54 s
 We have done    31.0000000     % of that
 The run will finish approximately on (in local time): Thu Nov 27, 2025 21:28

 Time step #         6300
 Time:    143.673843      seconds
 Elapsed time in seconds =    168.32194699999999
 Elapsed time in hh:mm:ss =      0 h 02 m 48 s
 Mean elapsed time per time step in seconds =    2.67177690E-02
 Max norm displacement vector U in all slices (m) =    7.38686694E-08
 Time steps done =         6300  out of        20000
 Time steps remaining =        13700
 Estimated remaining time in seconds =    366.033447
 Estimated remaining time in hh:mm:ss =      0 h 06 m 06 s
 Estimated total run time in seconds =    534.355408
 Estimated total run time in hh:mm:ss =      0 h 08 m 54 s
 We have done    31.5000000     % of that
 The run will finish approximately on (in local time): Thu Nov 27, 2025 21:28

 Time step #         6400
 Time:    146.073837      seconds
 Elapsed time in seconds =    171.32869799999997
 Elapsed time in hh:mm:ss =      0 h 02 m 51 s
 Mean elapsed time per time step in seconds =    2.67701093E-02
 Max norm displacement vector U in all slices (m) =    7.57845910E-08
 Time steps done =         6400  out of        20000
 Time steps remaining =        13600
 Estimated remaining time in seconds =    364.073486
 Estimated remaining time in hh:mm:ss =      0 h 06 m 04 s
 Estimated total run time in seconds =    535.402161
 Estimated total run time in hh:mm:ss =      0 h 08 m 55 s
 We have done    32.0000000     % of that
 The run will finish approximately on (in local time): Thu Nov 27, 2025 21:28

 Time step #         6500
 Time:    148.473846      seconds
 Elapsed time in seconds =    177.39318000000000
 Elapsed time in hh:mm:ss =      0 h 02 m 57 s
 Mean elapsed time per time step in seconds =    2.72912588E-02
 Max norm displacement vector U in all slices (m) =    6.68743212E-08
 Time steps done =         6500  out of        20000
 Time steps remaining =        13500
 Estimated remaining time in seconds =    368.431976
 Estimated remaining time in hh:mm:ss =      0 h 06 m 08 s
 Estimated total run time in seconds =    545.825195
 Estimated total run time in hh:mm:ss =      0 h 09 m 05 s
 We have done    32.5000000     % of that
 The run will finish approximately on (in local time): Thu Nov 27, 2025 21:28

 Time step #         6600
 Time:    150.873840      seconds
 Elapsed time in seconds =    180.04605599999999
 Elapsed time in hh:mm:ss =      0 h 03 m 00 s
 Mean elapsed time per time step in seconds =    2.72797048E-02
 Max norm displacement vector U in all slices (m) =    7.43370734E-08
 Time steps done =         6600  out of        20000
 Time steps remaining =        13400
 Estimated remaining time in seconds =    365.548065
 Estimated remaining time in hh:mm:ss =      0 h 06 m 05 s
 Estimated total run time in seconds =    545.594116
 Estimated total run time in hh:mm:ss =      0 h 09 m 05 s
 We have done    33.0000000     % of that
 The run will finish approximately on (in local time): Thu Nov 27, 2025 21:28

 Time step #         6700
 Time:    153.273834      seconds
 Elapsed time in seconds =    182.64920999999998
 Elapsed time in hh:mm:ss =      0 h 03 m 02 s
 Mean elapsed time per time step in seconds =    2.72610765E-02
 Max norm displacement vector U in all slices (m) =    7.45557713E-08
 Time steps done =         6700  out of        20000
 Time steps remaining =        13300
 Estimated remaining time in seconds =    362.572327
 Estimated remaining time in hh:mm:ss =      0 h 06 m 02 s
 Estimated total run time in seconds =    545.221497
 Estimated total run time in hh:mm:ss =      0 h 09 m 05 s
 We have done    33.5000000     % of that
 The run will finish approximately on (in local time): Thu Nov 27, 2025 21:28

 Time step #         6800
 Time:    155.673843      seconds
 Elapsed time in seconds =    185.68203699999998
 Elapsed time in hh:mm:ss =      0 h 03 m 05 s
 Mean elapsed time per time step in seconds =    2.73061823E-02
 Max norm displacement vector U in all slices (m) =    7.46712701E-08
 Time steps done =         6800  out of        20000
 Time steps remaining =        13200
 Estimated remaining time in seconds =    360.441589
 Estimated remaining time in hh:mm:ss =      0 h 06 m 00 s
 Estimated total run time in seconds =    546.123657
 Estimated total run time in hh:mm:ss =      0 h 09 m 06 s
 We have done    34.0000000     % of that
 The run will finish approximately on (in local time): Thu Nov 27, 2025 21:29

 Time step #         6900
 Time:    158.073837      seconds
 Elapsed time in seconds =    188.63511799999998
 Elapsed time in hh:mm:ss =      0 h 03 m 08 s
 Mean elapsed time per time step in seconds =    2.73384228E-02
 Max norm displacement vector U in all slices (m) =    9.00843276E-08
 Time steps done =         6900  out of        20000
 Time steps remaining =        13100
 Estimated remaining time in seconds =    358.133331
 Estimated remaining time in hh:mm:ss =      0 h 05 m 58 s
 Estimated total run time in seconds =    546.768433
 Estimated total run time in hh:mm:ss =      0 h 09 m 06 s
 We have done    34.5000000     % of that
 The run will finish approximately on (in local time): Thu Nov 27, 2025 21:29

 Time step #         7000
 Time:    160.473846      seconds
 Elapsed time in seconds =    191.45971200000000
 Elapsed time in hh:mm:ss =      0 h 03 m 11 s
 Mean elapsed time per time step in seconds =    2.73513868E-02
 Max norm displacement vector U in all slices (m) =    7.75662770E-08
 Time steps done =         7000  out of        20000
 Time steps remaining =        13000
 Estimated remaining time in seconds =    355.568024
 Estimated remaining time in hh:mm:ss =      0 h 05 m 55 s
 Estimated total run time in seconds =    547.027771
 Estimated total run time in hh:mm:ss =      0 h 09 m 07 s
 We have done    35.0000000     % of that
 The run will finish approximately on (in local time): Thu Nov 27, 2025 21:29

 Time step #         7100
 Time:    162.873840      seconds
 Elapsed time in seconds =    194.24330999999998
 Elapsed time in hh:mm:ss =      0 h 03 m 14 s
 Mean elapsed time per time step in seconds =    2.73582134E-02
 Max norm displacement vector U in all slices (m) =    7.15875430E-08
 Time steps done =         7100  out of        20000
 Time steps remaining =        12900
 Estimated remaining time in seconds =    352.920929
 Estimated remaining time in hh:mm:ss =      0 h 05 m 52 s
 Estimated total run time in seconds =    547.164246
 Estimated total run time in hh:mm:ss =      0 h 09 m 07 s
 We have done    35.5000000     % of that
 The run will finish approximately on (in local time): Thu Nov 27, 2025 21:29

 Time step #         7200
 Time:    165.273834      seconds
 Elapsed time in seconds =    196.99020399999998
 Elapsed time in hh:mm:ss =      0 h 03 m 16 s
 Mean elapsed time per time step in seconds =    2.73597501E-02
 Max norm displacement vector U in all slices (m) =    7.00009082E-08
 Time steps done =         7200  out of        20000
 Time steps remaining =        12800
 Estimated remaining time in seconds =    350.204803
 Estimated remaining time in hh:mm:ss =      0 h 05 m 50 s
 Estimated total run time in seconds =    547.195007
 Estimated total run time in hh:mm:ss =      0 h 09 m 07 s
 We have done    36.0000000     % of that
 The run will finish approximately on (in local time): Thu Nov 27, 2025 21:29

 Time step #         7300
 Time:    167.673843      seconds
 Elapsed time in seconds =    199.58492400000000
 Elapsed time in hh:mm:ss =      0 h 03 m 19 s
 Mean elapsed time per time step in seconds =    2.73404010E-02
 Max norm displacement vector U in all slices (m) =    7.01545204E-08
 Time steps done =         7300  out of        20000
 Time steps remaining =        12700
 Estimated remaining time in seconds =    347.223083
 Estimated remaining time in hh:mm:ss =      0 h 05 m 47 s
 Estimated total run time in seconds =    546.807983
 Estimated total run time in hh:mm:ss =      0 h 09 m 06 s
 We have done    36.5000000     % of that
 The run will finish approximately on (in local time): Thu Nov 27, 2025 21:29

 Time step #         7400
 Time:    170.073837      seconds
 Elapsed time in seconds =    202.24702099999999
 Elapsed time in hh:mm:ss =      0 h 03 m 22 s
 Mean elapsed time per time step in seconds =    2.73306780E-02
 Max norm displacement vector U in all slices (m) =    7.84331817E-08
 Time steps done =         7400  out of        20000
 Time steps remaining =        12600
 Estimated remaining time in seconds =    344.366547
 Estimated remaining time in hh:mm:ss =      0 h 05 m 44 s
 Estimated total run time in seconds =    546.613586
 Estimated total run time in hh:mm:ss =      0 h 09 m 06 s
 We have done    37.0000000     % of that
 The run will finish approximately on (in local time): Thu Nov 27, 2025 21:29

 Time step #         7500
 Time:    172.473846      seconds
 Elapsed time in seconds =    205.66860100000000
 Elapsed time in hh:mm:ss =      0 h 03 m 25 s
 Mean elapsed time per time step in seconds =    2.74224803E-02
 Max norm displacement vector U in all slices (m) =    6.33967900E-08
 Time steps done =         7500  out of        20000
 Time steps remaining =        12500
 Estimated remaining time in seconds =    342.781006
 Estimated remaining time in hh:mm:ss =      0 h 05 m 42 s
 Estimated total run time in seconds =    548.449585
 Estimated total run time in hh:mm:ss =      0 h 09 m 08 s
 We have done    37.5000000     % of that
 The run will finish approximately on (in local time): Thu Nov 27, 2025 21:29

 Time step #         7600
 Time:    174.873840      seconds
 Elapsed time in seconds =    208.51784499999999
 Elapsed time in hh:mm:ss =      0 h 03 m 28 s
 Mean elapsed time per time step in seconds =    2.74365582E-02
 Max norm displacement vector U in all slices (m) =    8.68537171E-08
 Time steps done =         7600  out of        20000
 Time steps remaining =        12400
 Estimated remaining time in seconds =    340.213318
 Estimated remaining time in hh:mm:ss =      0 h 05 m 40 s
 Estimated total run time in seconds =    548.731201
 Estimated total run time in hh:mm:ss =      0 h 09 m 08 s
 We have done    38.0000000     % of that
 The run will finish approximately on (in local time): Thu Nov 27, 2025 21:29

 Time step #         7700
 Time:    177.273834      seconds
 Elapsed time in seconds =    211.70011599999998
 Elapsed time in hh:mm:ss =      0 h 03 m 31 s
 Mean elapsed time per time step in seconds =    2.74935216E-02
 Max norm displacement vector U in all slices (m) =    7.56801626E-08
 Time steps done =         7700  out of        20000
 Time steps remaining =        12300
 Estimated remaining time in seconds =    338.170319
 Estimated remaining time in hh:mm:ss =      0 h 05 m 38 s
 Estimated total run time in seconds =    549.870422
 Estimated total run time in hh:mm:ss =      0 h 09 m 09 s
 We have done    38.5000000     % of that
 The run will finish approximately on (in local time): Thu Nov 27, 2025 21:29

 Time step #         7800
 Time:    179.673843      seconds
 Elapsed time in seconds =    214.45996199999999
 Elapsed time in hh:mm:ss =      0 h 03 m 34 s
 Mean elapsed time per time step in seconds =    2.74948664E-02
 Max norm displacement vector U in all slices (m) =    7.48459144E-08
 Time steps done =         7800  out of        20000
 Time steps remaining =        12200
 Estimated remaining time in seconds =    335.437378
 Estimated remaining time in hh:mm:ss =      0 h 05 m 35 s
 Estimated total run time in seconds =    549.897339
 Estimated total run time in hh:mm:ss =      0 h 09 m 09 s
 We have done    39.0000000     % of that
 The run will finish approximately on (in local time): Thu Nov 27, 2025 21:29

 Time step #         7900
 Time:    182.073837      seconds
 Elapsed time in seconds =    217.08769199999998
 Elapsed time in hh:mm:ss =      0 h 03 m 37 s
 Mean elapsed time per time step in seconds =    2.74794549E-02
 Max norm displacement vector U in all slices (m) =    7.24110265E-08
 Time steps done =         7900  out of        20000
 Time steps remaining =        12100
 Estimated remaining time in seconds =    332.501404
 Estimated remaining time in hh:mm:ss =      0 h 05 m 32 s
 Estimated total run time in seconds =    549.589111
 Estimated total run time in hh:mm:ss =      0 h 09 m 09 s
 We have done    39.5000000     % of that
 The run will finish approximately on (in local time): Thu Nov 27, 2025 21:29

 Time step #         8000
 Time:    184.473846      seconds
 Elapsed time in seconds =    219.68140000000000
 Elapsed time in hh:mm:ss =      0 h 03 m 39 s
 Mean elapsed time per time step in seconds =    2.74601746E-02
 Max norm displacement vector U in all slices (m) =    6.79489176E-08
 Time steps done =         8000  out of        20000
 Time steps remaining =        12000
 Estimated remaining time in seconds =    329.522095
 Estimated remaining time in hh:mm:ss =      0 h 05 m 29 s
 Estimated total run time in seconds =    549.203491
 Estimated total run time in hh:mm:ss =      0 h 09 m 09 s
 We have done    40.0000000     % of that
 The run will finish approximately on (in local time): Thu Nov 27, 2025 21:28

 Time step #         8100
 Time:    186.873840      seconds
 Elapsed time in seconds =    222.26727399999999
 Elapsed time in hh:mm:ss =      0 h 03 m 42 s
 Mean elapsed time per time step in seconds =    2.74404045E-02
 Max norm displacement vector U in all slices (m) =    8.42990957E-08
 Time steps done =         8100  out of        20000
 Time steps remaining =        11900
 Estimated remaining time in seconds =    326.540802
 Estimated remaining time in hh:mm:ss =      0 h 05 m 26 s
 Estimated total run time in seconds =    548.808105
 Estimated total run time in hh:mm:ss =      0 h 09 m 08 s
 We have done    40.5000000     % of that
 The run will finish approximately on (in local time): Thu Nov 27, 2025 21:28

 Time step #         8200
 Time:    189.273834      seconds
 Elapsed time in seconds =    224.84231000000000
 Elapsed time in hh:mm:ss =      0 h 03 m 44 s
 Mean elapsed time per time step in seconds =    2.74197944E-02
 Max norm displacement vector U in all slices (m) =    6.99594622E-08
 Time steps done =         8200  out of        20000
 Time steps remaining =        11800
 Estimated remaining time in seconds =    323.553558
 Estimated remaining time in hh:mm:ss =      0 h 05 m 23 s
 Estimated total run time in seconds =    548.395874
 Estimated total run time in hh:mm:ss =      0 h 09 m 08 s
 We have done    41.0000000     % of that
 The run will finish approximately on (in local time): Thu Nov 27, 2025 21:28

 Time step #         8300
 Time:    191.673843      seconds
 Elapsed time in seconds =    227.50228799999999
 Elapsed time in hh:mm:ss =      0 h 03 m 47 s
 Mean elapsed time per time step in seconds =    2.74099149E-02
 Max norm displacement vector U in all slices (m) =    6.98167923E-08
 Time steps done =         8300  out of        20000
 Time steps remaining =        11700
 Estimated remaining time in seconds =    320.695984
 Estimated remaining time in hh:mm:ss =      0 h 05 m 20 s
 Estimated total run time in seconds =    548.198303
 Estimated total run time in hh:mm:ss =      0 h 09 m 08 s
 We have done    41.5000000     % of that
 The run will finish approximately on (in local time): Thu Nov 27, 2025 21:28

 Time step #         8400
 Time:    194.073837      seconds
 Elapsed time in seconds =    230.18449199999998
 Elapsed time in hh:mm:ss =      0 h 03 m 50 s
 Mean elapsed time per time step in seconds =    2.74029151E-02
 Max norm displacement vector U in all slices (m) =    6.46564544E-08
 Time steps done =         8400  out of        20000
 Time steps remaining =        11600
 Estimated remaining time in seconds =    317.873810
 Estimated remaining time in hh:mm:ss =      0 h 05 m 17 s
 Estimated total run time in seconds =    548.058289
 Estimated total run time in hh:mm:ss =      0 h 09 m 08 s
 We have done    42.0000000     % of that
 The run will finish approximately on (in local time): Thu Nov 27, 2025 21:28

 Time step #         8500
 Time:    196.473846      seconds
 Elapsed time in seconds =    232.80275899999998
 Elapsed time in hh:mm:ss =      0 h 03 m 52 s
 Mean elapsed time per time step in seconds =    2.73885597E-02
 Max norm displacement vector U in all slices (m) =    6.03692953E-08
 Time steps done =         8500  out of        20000
 Time steps remaining =        11500
 Estimated remaining time in seconds =    314.968445
 Estimated remaining time in hh:mm:ss =      0 h 05 m 14 s
 Estimated total run time in seconds =    547.771179
 Estimated total run time in hh:mm:ss =      0 h 09 m 07 s
 We have done    42.5000000     % of that
 The run will finish approximately on (in local time): Thu Nov 27, 2025 21:28

 Time step #         8600
 Time:    198.873840      seconds
 Elapsed time in seconds =    235.44444399999998
 Elapsed time in hh:mm:ss =      0 h 03 m 55 s
 Mean elapsed time per time step in seconds =    2.73772608E-02
 Max norm displacement vector U in all slices (m) =    6.12955517E-08
 Time steps done =         8600  out of        20000
 Time steps remaining =        11400
 Estimated remaining time in seconds =    312.100769
 Estimated remaining time in hh:mm:ss =      0 h 05 m 12 s
 Estimated total run time in seconds =    547.545227
 Estimated total run time in hh:mm:ss =      0 h 09 m 07 s
 We have done    43.0000000     % of that
 The run will finish approximately on (in local time): Thu Nov 27, 2025 21:28

 Time step #         8700
 Time:    201.273834      seconds
 Elapsed time in seconds =    238.11892399999999
 Elapsed time in hh:mm:ss =      0 h 03 m 58 s
 Mean elapsed time per time step in seconds =    2.73699909E-02
 Max norm displacement vector U in all slices (m) =    6.67298323E-08
 Time steps done =         8700  out of        20000
 Time steps remaining =        11300
 Estimated remaining time in seconds =    309.280914
 Estimated remaining time in hh:mm:ss =      0 h 05 m 09 s
 Estimated total run time in seconds =    547.399841
 Estimated total run time in hh:mm:ss =      0 h 09 m 07 s
 We have done    43.5000000     % of that
 The run will finish approximately on (in local time): Thu Nov 27, 2025 21:28

 Time step #         8800
 Time:    203.673843      seconds
 Elapsed time in seconds =    240.76210799999998
 Elapsed time in hh:mm:ss =      0 h 04 m 00 s
 Mean elapsed time per time step in seconds =    2.73593310E-02
 Max norm displacement vector U in all slices (m) =    6.18460376E-08
 Time steps done =         8800  out of        20000
 Time steps remaining =        11200
 Estimated remaining time in seconds =    306.424500
 Estimated remaining time in hh:mm:ss =      0 h 05 m 06 s
 Estimated total run time in seconds =    547.186584
 Estimated total run time in hh:mm:ss =      0 h 09 m 07 s
 We have done    44.0000000     % of that
 The run will finish approximately on (in local time): Thu Nov 27, 2025 21:28

 Time step #         8900
 Time:    206.073837      seconds
 Elapsed time in seconds =    243.52194499999999
 Elapsed time in hh:mm:ss =      0 h 04 m 03 s
 Mean elapsed time per time step in seconds =    2.73620170E-02
 Max norm displacement vector U in all slices (m) =    6.18856930E-08
 Time steps done =         8900  out of        20000
 Time steps remaining =        11100
 Estimated remaining time in seconds =    303.718384
 Estimated remaining time in hh:mm:ss =      0 h 05 m 03 s
 Estimated total run time in seconds =    547.240295
 Estimated total run time in hh:mm:ss =      0 h 09 m 07 s
 We have done    44.5000000     % of that
 The run will finish approximately on (in local time): Thu Nov 27, 2025 21:29

 Time step #         9000
 Time:    208.473846      seconds
 Elapsed time in seconds =    246.20474199999998
 Elapsed time in hh:mm:ss =      0 h 04 m 06 s
 Mean elapsed time per time step in seconds =    2.73560826E-02
 Max norm displacement vector U in all slices (m) =    6.30641424E-08
 Time steps done =         9000  out of        20000
 Time steps remaining =        11000
 Estimated remaining time in seconds =    300.916901
 Estimated remaining time in hh:mm:ss =      0 h 05 m 00 s
 Estimated total run time in seconds =    547.121643
 Estimated total run time in hh:mm:ss =      0 h 09 m 07 s
 We have done    45.0000000     % of that
 The run will finish approximately on (in local time): Thu Nov 27, 2025 21:29

 Time step #         9100
 Time:    210.873840      seconds
 Elapsed time in seconds =    248.83987700000000
 Elapsed time in hh:mm:ss =      0 h 04 m 08 s
 Mean elapsed time per time step in seconds =    2.73450408E-02
 Max norm displacement vector U in all slices (m) =    5.97835736E-08
 Time steps done =         9100  out of        20000
 Time steps remaining =        10900
 Estimated remaining time in seconds =    298.060944
 Estimated remaining time in hh:mm:ss =      0 h 04 m 58 s
 Estimated total run time in seconds =    546.900818
 Estimated total run time in hh:mm:ss =      0 h 09 m 06 s
 We have done    45.5000000     % of that
 The run will finish approximately on (in local time): Thu Nov 27, 2025 21:29

 Time step #         9200
 Time:    213.273834      seconds
 Elapsed time in seconds =    251.99519199999997
 Elapsed time in hh:mm:ss =      0 h 04 m 11 s
 Mean elapsed time per time step in seconds =    2.73907818E-02
 Max norm displacement vector U in all slices (m) =    6.20636484E-08
 Time steps done =         9200  out of        20000
 Time steps remaining =        10800
 Estimated remaining time in seconds =    295.820435
 Estimated remaining time in hh:mm:ss =      0 h 04 m 55 s
 Estimated total run time in seconds =    547.815613
 Estimated total run time in hh:mm:ss =      0 h 09 m 07 s
 We have done    46.0000000     % of that
 The run will finish approximately on (in local time): Thu Nov 27, 2025 21:29

 Time step #         9300
 Time:    215.673843      seconds
 Elapsed time in seconds =    254.80498499999999
 Elapsed time in hh:mm:ss =      0 h 04 m 14 s
 Mean elapsed time per time step in seconds =    2.73983851E-02
 Max norm displacement vector U in all slices (m) =    6.53709051E-08
 Time steps done =         9300  out of        20000
 Time steps remaining =        10700
 Estimated remaining time in seconds =    293.162720
 Estimated remaining time in hh:mm:ss =      0 h 04 m 53 s
 Estimated total run time in seconds =    547.967712
 Estimated total run time in hh:mm:ss =      0 h 09 m 07 s
 We have done    46.5000000     % of that
 The run will finish approximately on (in local time): Thu Nov 27, 2025 21:29

 Time step #         9400
[...]
 We have done    86.5000000     % of that
 The run will finish approximately on (in local time): Thu Nov 27, 2025 21:28

 Time step #        17400
 Time:    410.073853      seconds
 Elapsed time in seconds =    470.70477000000000
 Elapsed time in hh:mm:ss =      0 h 07 m 50 s
 Mean elapsed time per time step in seconds =    2.70519983E-02
 Max norm displacement vector U in all slices (m) =    2.09278284E-08
 Time steps done =        17400  out of        20000
 Time steps remaining =         2600
 Estimated remaining time in seconds =    70.3351974
 Estimated remaining time in hh:mm:ss =      0 h 01 m 10 s
 Estimated total run time in seconds =    541.039978
 Estimated total run time in hh:mm:ss =      0 h 09 m 01 s
 We have done    87.0000000     % of that
 The run will finish approximately on (in local time): Thu Nov 27, 2025 21:28

 Time step #        17500
 Time:    412.473846      seconds
 Elapsed time in seconds =    473.32998500000002
 Elapsed time in hh:mm:ss =      0 h 07 m 53 s
 Mean elapsed time per time step in seconds =    2.70474274E-02
 Max norm displacement vector U in all slices (m) =    2.25190639E-08
 Time steps done =        17500  out of        20000
 Time steps remaining =         2500
 Estimated remaining time in seconds =    67.6185684
 Estimated remaining time in hh:mm:ss =      0 h 01 m 07 s
 Estimated total run time in seconds =    540.948547
 Estimated total run time in hh:mm:ss =      0 h 09 m 00 s
 We have done    87.5000000     % of that
 The run will finish approximately on (in local time): Thu Nov 27, 2025 21:28

 Time step #        17600
 Time:    414.873840      seconds
 Elapsed time in seconds =    476.06284600000004
 Elapsed time in hh:mm:ss =      0 h 07 m 56 s
 Mean elapsed time per time step in seconds =    2.70490255E-02
 Max norm displacement vector U in all slices (m) =    2.45233629E-08
 Time steps done =        17600  out of        20000
 Time steps remaining =         2400
 Estimated remaining time in seconds =    64.9176636
 Estimated remaining time in hh:mm:ss =      0 h 01 m 04 s
 Estimated total run time in seconds =    540.980530
 Estimated total run time in hh:mm:ss =      0 h 09 m 00 s
 We have done    88.0000000     % of that
 The run will finish approximately on (in local time): Thu Nov 27, 2025 21:28

 Time step #        17700
 Time:    417.273834      seconds
 Elapsed time in seconds =    478.76903300000004
 Elapsed time in hh:mm:ss =      0 h 07 m 58 s
 Mean elapsed time per time step in seconds =    2.70490982E-02
 Max norm displacement vector U in all slices (m) =    2.31411939E-08
 Time steps done =        17700  out of        20000
 Time steps remaining =         2300
 Estimated remaining time in seconds =    62.2129250
 Estimated remaining time in hh:mm:ss =      0 h 01 m 02 s
 Estimated total run time in seconds =    540.981934
 Estimated total run time in hh:mm:ss =      0 h 09 m 00 s
 We have done    88.5000000     % of that
 The run will finish approximately on (in local time): Thu Nov 27, 2025 21:28

 Time step #        17800
 Time:    419.673828      seconds
 Elapsed time in seconds =    481.50042400000001
 Elapsed time in hh:mm:ss =      0 h 08 m 01 s
 Mean elapsed time per time step in seconds =    2.70505864E-02
 Max norm displacement vector U in all slices (m) =    2.23403411E-08
 Time steps done =        17800  out of        20000
 Time steps remaining =         2200
 Estimated remaining time in seconds =    59.5112877
 Estimated remaining time in hh:mm:ss =      0 h 00 m 59 s
 Estimated total run time in seconds =    541.011719
 Estimated total run time in hh:mm:ss =      0 h 09 m 01 s
 We have done    89.0000000     % of that
 The run will finish approximately on (in local time): Thu Nov 27, 2025 21:28

 Time step #        17900
 Time:    422.073853      seconds
 Elapsed time in seconds =    484.21370400000001
 Elapsed time in hh:mm:ss =      0 h 08 m 04 s
 Mean elapsed time per time step in seconds =    2.70510446E-02
 Max norm displacement vector U in all slices (m) =    2.34445778E-08
 Time steps done =        17900  out of        20000
 Time steps remaining =         2100
 Estimated remaining time in seconds =    56.8071938
 Estimated remaining time in hh:mm:ss =      0 h 00 m 56 s
 Estimated total run time in seconds =    541.020874
 Estimated total run time in hh:mm:ss =      0 h 09 m 01 s
 We have done    89.5000000     % of that
 The run will finish approximately on (in local time): Thu Nov 27, 2025 21:29

 Time step #        18000
 Time:    424.473846      seconds
 Elapsed time in seconds =    486.91819800000002
 Elapsed time in hh:mm:ss =      0 h 08 m 06 s
 Mean elapsed time per time step in seconds =    2.70510111E-02
 Max norm displacement vector U in all slices (m) =    2.16834373E-08
 Time steps done =        18000  out of        20000
 Time steps remaining =         2000
 Estimated remaining time in seconds =    54.1020203
 Estimated remaining time in hh:mm:ss =      0 h 00 m 54 s
 Estimated total run time in seconds =    541.020203
 Estimated total run time in hh:mm:ss =      0 h 09 m 01 s
 We have done    90.0000000     % of that
 The run will finish approximately on (in local time): Thu Nov 27, 2025 21:29

 Time step #        18100
 Time:    426.873840      seconds
 Elapsed time in seconds =    489.60432600000001
 Elapsed time in hh:mm:ss =      0 h 08 m 09 s
 Mean elapsed time per time step in seconds =    2.70499624E-02
 Max norm displacement vector U in all slices (m) =    2.21443894E-08
 Time steps done =        18100  out of        20000
 Time steps remaining =         1900
 Estimated remaining time in seconds =    51.3949280
 Estimated remaining time in hh:mm:ss =      0 h 00 m 51 s
 Estimated total run time in seconds =    540.999268
 Estimated total run time in hh:mm:ss =      0 h 09 m 00 s
 We have done    90.5000000     % of that
 The run will finish approximately on (in local time): Thu Nov 27, 2025 21:29

 Time step #        18200
 Time:    429.273834      seconds
 Elapsed time in seconds =    492.26849900000002
 Elapsed time in hh:mm:ss =      0 h 08 m 12 s
 Mean elapsed time per time step in seconds =    2.70477198E-02
 Max norm displacement vector U in all slices (m) =    1.84854603E-08
 Time steps done =        18200  out of        20000
 Time steps remaining =         1800
 Estimated remaining time in seconds =    48.6858940
 Estimated remaining time in hh:mm:ss =      0 h 00 m 48 s
 Estimated total run time in seconds =    540.954407
 Estimated total run time in hh:mm:ss =      0 h 09 m 00 s
 We have done    91.0000000     % of that
 The run will finish approximately on (in local time): Thu Nov 27, 2025 21:29

 Time step #        18300
 Time:    431.673828      seconds
 Elapsed time in seconds =    494.97440800000004
 Elapsed time in hh:mm:ss =      0 h 08 m 14 s
 Mean elapsed time per time step in seconds =    2.70477813E-02
 Max norm displacement vector U in all slices (m) =    2.36000020E-08
 Time steps done =        18300  out of        20000
 Time steps remaining =         1700
 Estimated remaining time in seconds =    45.9812279
 Estimated remaining time in hh:mm:ss =      0 h 00 m 45 s
 Estimated total run time in seconds =    540.955627
 Estimated total run time in hh:mm:ss =      0 h 09 m 00 s
 We have done    91.5000000     % of that
 The run will finish approximately on (in local time): Thu Nov 27, 2025 21:29

 Time step #        18400
 Time:    434.073853      seconds
 Elapsed time in seconds =    497.93458300000003
 Elapsed time in hh:mm:ss =      0 h 08 m 17 s
 Mean elapsed time per time step in seconds =    2.70616617E-02
 Max norm displacement vector U in all slices (m) =    2.19607657E-08
 Time steps done =        18400  out of        20000
 Time steps remaining =         1600
 Estimated remaining time in seconds =    43.2986603
 Estimated remaining time in hh:mm:ss =      0 h 00 m 43 s
 Estimated total run time in seconds =    541.233215
 Estimated total run time in hh:mm:ss =      0 h 09 m 01 s
 We have done    92.0000000     % of that
 The run will finish approximately on (in local time): Thu Nov 27, 2025 21:29

 Time step #        18500
 Time:    436.473846      seconds
 Elapsed time in seconds =    500.64461299999999
 Elapsed time in hh:mm:ss =      0 h 08 m 20 s
 Mean elapsed time per time step in seconds =    2.70618703E-02
 Max norm displacement vector U in all slices (m) =    2.05626165E-08
 Time steps done =        18500  out of        20000
 Time steps remaining =         1500
 Estimated remaining time in seconds =    40.5928078
 Estimated remaining time in hh:mm:ss =      0 h 00 m 40 s
 Estimated total run time in seconds =    541.237427
 Estimated total run time in hh:mm:ss =      0 h 09 m 01 s
 We have done    92.5000000     % of that
 The run will finish approximately on (in local time): Thu Nov 27, 2025 21:29

 Time step #        18600
 Time:    438.873840      seconds
 Elapsed time in seconds =    503.30545499999999
 Elapsed time in hh:mm:ss =      0 h 08 m 23 s
 Mean elapsed time per time step in seconds =    2.70594340E-02
 Max norm displacement vector U in all slices (m) =    2.19852900E-08
 Time steps done =        18600  out of        20000
 Time steps remaining =         1400
 Estimated remaining time in seconds =    37.8832054
 Estimated remaining time in hh:mm:ss =      0 h 00 m 37 s
 Estimated total run time in seconds =    541.188660
 Estimated total run time in hh:mm:ss =      0 h 09 m 01 s
 We have done    93.0000000     % of that
 The run will finish approximately on (in local time): Thu Nov 27, 2025 21:29

 Time step #        18700
 Time:    441.273834      seconds
 Elapsed time in seconds =    505.93291199999999
 Elapsed time in hh:mm:ss =      0 h 08 m 25 s
 Mean elapsed time per time step in seconds =    2.70552356E-02
 Max norm displacement vector U in all slices (m) =    2.19531842E-08
 Time steps done =        18700  out of        20000
 Time steps remaining =         1300
 Estimated remaining time in seconds =    35.1718063
 Estimated remaining time in hh:mm:ss =      0 h 00 m 35 s
 Estimated total run time in seconds =    541.104736
 Estimated total run time in hh:mm:ss =      0 h 09 m 01 s
 We have done    93.5000000     % of that
 The run will finish approximately on (in local time): Thu Nov 27, 2025 21:29

 Time step #        18800
 Time:    443.673828      seconds
 Elapsed time in seconds =    508.49981200000002
 Elapsed time in hh:mm:ss =      0 h 08 m 28 s
 Mean elapsed time per time step in seconds =    2.70478632E-02
 Max norm displacement vector U in all slices (m) =    2.17558220E-08
 Time steps done =        18800  out of        20000
 Time steps remaining =         1200
 Estimated remaining time in seconds =    32.4574356
 Estimated remaining time in hh:mm:ss =      0 h 00 m 32 s
 Estimated total run time in seconds =    540.957275
 Estimated total run time in hh:mm:ss =      0 h 09 m 00 s
 We have done    94.0000000     % of that
 The run will finish approximately on (in local time): Thu Nov 27, 2025 21:29

 Time step #        18900
 Time:    446.073853      seconds
 Elapsed time in seconds =    511.06388700000002
 Elapsed time in hh:mm:ss =      0 h 08 m 31 s
 Mean elapsed time per time step in seconds =    2.70404164E-02
 Max norm displacement vector U in all slices (m) =    1.99443662E-08
 Time steps done =        18900  out of        20000
 Time steps remaining =         1100
 Estimated remaining time in seconds =    29.7444592
 Estimated remaining time in hh:mm:ss =      0 h 00 m 29 s
 Estimated total run time in seconds =    540.808350
 Estimated total run time in hh:mm:ss =      0 h 09 m 00 s
 We have done    94.5000000     % of that
 The run will finish approximately on (in local time): Thu Nov 27, 2025 21:28

 Time step #        19000
 Time:    448.473846      seconds
 Elapsed time in seconds =    514.08963400000005
 Elapsed time in hh:mm:ss =      0 h 08 m 34 s
 Mean elapsed time per time step in seconds =    2.70573497E-02
 Max norm displacement vector U in all slices (m) =    1.88018348E-08
 Time steps done =        19000  out of        20000
 Time steps remaining =         1000
 Estimated remaining time in seconds =    27.0573483
 Estimated remaining time in hh:mm:ss =      0 h 00 m 27 s
 Estimated total run time in seconds =    541.146973
 Estimated total run time in hh:mm:ss =      0 h 09 m 01 s
 We have done    95.0000000     % of that
 The run will finish approximately on (in local time): Thu Nov 27, 2025 21:28

 Time step #        19100
 Time:    450.873840      seconds
 Elapsed time in seconds =    516.72886500000004
 Elapsed time in hh:mm:ss =      0 h 08 m 36 s
 Mean elapsed time per time step in seconds =    2.70538665E-02
 Max norm displacement vector U in all slices (m) =    2.21140883E-08
 Time steps done =        19100  out of        20000
 Time steps remaining =          900
 Estimated remaining time in seconds =    24.3484802
 Estimated remaining time in hh:mm:ss =      0 h 00 m 24 s
 Estimated total run time in seconds =    541.077332
 Estimated total run time in hh:mm:ss =      0 h 09 m 01 s
 We have done    95.5000000     % of that
 The run will finish approximately on (in local time): Thu Nov 27, 2025 21:28

 Time step #        19200
 Time:    453.273834      seconds
 Elapsed time in seconds =    519.42451100000005
 Elapsed time in hh:mm:ss =      0 h 08 m 39 s
 Mean elapsed time per time step in seconds =    2.70533599E-02
 Max norm displacement vector U in all slices (m) =    2.10260591E-08
 Time steps done =        19200  out of        20000
 Time steps remaining =          800
 Estimated remaining time in seconds =    21.6426888
 Estimated remaining time in hh:mm:ss =      0 h 00 m 21 s
 Estimated total run time in seconds =    541.067200
 Estimated total run time in hh:mm:ss =      0 h 09 m 01 s
 We have done    96.0000000     % of that
 The run will finish approximately on (in local time): Thu Nov 27, 2025 21:28

 Time step #        19300
 Time:    455.673828      seconds
 Elapsed time in seconds =    522.12331800000004
 Elapsed time in hh:mm:ss =      0 h 08 m 42 s
 Mean elapsed time per time step in seconds =    2.70530209E-02
 Max norm displacement vector U in all slices (m) =    1.89538465E-08
 Time steps done =        19300  out of        20000
 Time steps remaining =          700
 Estimated remaining time in seconds =    18.9371147
 Estimated remaining time in hh:mm:ss =      0 h 00 m 18 s
 Estimated total run time in seconds =    541.060425
 Estimated total run time in hh:mm:ss =      0 h 09 m 01 s
 We have done    96.5000000     % of that
 The run will finish approximately on (in local time): Thu Nov 27, 2025 21:28

 Time step #        19400
 Time:    458.073853      seconds
 Elapsed time in seconds =    524.76547900000003
 Elapsed time in hh:mm:ss =      0 h 08 m 44 s
 Mean elapsed time per time step in seconds =    2.70497669E-02
 Max norm displacement vector U in all slices (m) =    2.35283775E-08
 Time steps done =        19400  out of        20000
 Time steps remaining =          600
 Estimated remaining time in seconds =    16.2298603
 Estimated remaining time in hh:mm:ss =      0 h 00 m 16 s
 Estimated total run time in seconds =    540.995361
 Estimated total run time in hh:mm:ss =      0 h 09 m 00 s
 We have done    97.0000000     % of that
 The run will finish approximately on (in local time): Thu Nov 27, 2025 21:28

 Time step #        19500
 Time:    460.473846      seconds
 Elapsed time in seconds =    527.53362400000003
 Elapsed time in hh:mm:ss =      0 h 08 m 47 s
 Mean elapsed time per time step in seconds =    2.70530060E-02
 Max norm displacement vector U in all slices (m) =    2.23386518E-08
 Time steps done =        19500  out of        20000
 Time steps remaining =          500
 Estimated remaining time in seconds =    13.5265036
 Estimated remaining time in hh:mm:ss =      0 h 00 m 13 s
 Estimated total run time in seconds =    541.060120
 Estimated total run time in hh:mm:ss =      0 h 09 m 01 s
 We have done    97.5000000     % of that
 The run will finish approximately on (in local time): Thu Nov 27, 2025 21:28

 Time step #        19600
 Time:    462.873840      seconds
 Elapsed time in seconds =    530.28581700000007
 Elapsed time in hh:mm:ss =      0 h 08 m 50 s
 Mean elapsed time per time step in seconds =    2.70553995E-02
 Max norm displacement vector U in all slices (m) =    1.86674143E-08
 Time steps done =        19600  out of        20000
 Time steps remaining =          400
 Estimated remaining time in seconds =    10.8221598
 Estimated remaining time in hh:mm:ss =      0 h 00 m 10 s
 Estimated total run time in seconds =    541.107971
 Estimated total run time in hh:mm:ss =      0 h 09 m 01 s
 We have done    98.0000000     % of that
 The run will finish approximately on (in local time): Thu Nov 27, 2025 21:28

 Time step #        19700
 Time:    465.273834      seconds
 Elapsed time in seconds =    533.13734999999997
 Elapsed time in hh:mm:ss =      0 h 08 m 53 s
 Mean elapsed time per time step in seconds =    2.70628091E-02
 Max norm displacement vector U in all slices (m) =    1.78772463E-08
 Time steps done =        19700  out of        20000
 Time steps remaining =          300
 Estimated remaining time in seconds =    8.11884308
 Estimated remaining time in hh:mm:ss =      0 h 00 m 08 s
 Estimated total run time in seconds =    541.256165
 Estimated total run time in hh:mm:ss =      0 h 09 m 01 s
 We have done    98.5000000     % of that
 The run will finish approximately on (in local time): Thu Nov 27, 2025 21:28

 Time step #        19800
 Time:    467.673828      seconds
 Elapsed time in seconds =    535.80189900000005
 Elapsed time in hh:mm:ss =      0 h 08 m 55 s
 Mean elapsed time per time step in seconds =    2.70607024E-02
 Max norm displacement vector U in all slices (m) =    1.91776337E-08
 Time steps done =        19800  out of        20000
 Time steps remaining =          200
 Estimated remaining time in seconds =    5.41214037
 Estimated remaining time in hh:mm:ss =      0 h 00 m 05 s
 Estimated total run time in seconds =    541.214050
 Estimated total run time in hh:mm:ss =      0 h 09 m 01 s
 We have done    99.0000000     % of that
 The run will finish approximately on (in local time): Thu Nov 27, 2025 21:28

 Time step #        19900
 Time:    470.073853      seconds
 Elapsed time in seconds =    538.42438900000002
 Elapsed time in hh:mm:ss =      0 h 08 m 58 s
 Mean elapsed time per time step in seconds =    2.70565022E-02
 Max norm displacement vector U in all slices (m) =    1.78796569E-08
 Time steps done =        19900  out of        20000
 Time steps remaining =          100
 Estimated remaining time in seconds =    2.70565009
 Estimated remaining time in hh:mm:ss =      0 h 00 m 02 s
 Estimated total run time in seconds =    541.130066
 Estimated total run time in hh:mm:ss =      0 h 09 m 01 s
 We have done    99.5000000     % of that
 The run will finish approximately on (in local time): Thu Nov 27, 2025 21:28

 Time step #        20000
 Time:    472.473846      seconds
 Elapsed time in seconds =    541.01203599999997
 Elapsed time in hh:mm:ss =      0 h 09 m 01 s
 Mean elapsed time per time step in seconds =    2.70506013E-02
 Max norm displacement vector U in all slices (m) =    1.80097768E-08
 Time steps done =        20000  out of        20000
 Time steps remaining =            0
 Estimated remaining time in seconds =    0.00000000
 Estimated remaining time in hh:mm:ss =      0 h 00 m 00 s
 Estimated total run time in seconds =    541.012024
 Estimated total run time in hh:mm:ss =      0 h 09 m 01 s
 We have done    100.000000     % of that

 Writing the seismograms
 Total number of time steps written:        20000
 Writing the seismograms in parallel took    4.04959992E-02  seconds

 Time loop finished. Timing info:
 Total elapsed time in seconds =    541.08082600000000
 Total elapsed time in hh:mm:ss =      0 h 09 m 01 s

 finalizing simulation


 End of the simulation

